[General]
network = Dumbell
record-eventlog = false
sim-time-limit = 500s
Dumbell.host[*].dataLength = normal(1000,150)
Dumbell.host[*].destChoice = 0
Dumbell.switch[*].conP[*].tToMarkRnd = uniform(0.85,1.15)

