[General]
network = Dumbell
record-eventlog = false
sim-time-limit = 500s
Dumbell.host[*].dataLength = normal(1000,150)

