[General]
network = Dumbell
record-eventlog = false
sim-time-limit = 500s
warmup-period = 0.01s
Dumbell.host[*].dataLength = normal(1000,150)
Dumbell.host[*].destChoice = 1
Dumbell.switch[*].conP[*].tToMarkRnd = uniform(0.85,1.15)
Dumbell.host[*].expThr = uniform(0.85,1.15)
Dumbell.host[*].USING_TIMER = true
Dumbell.switch[*].conP[*].QCN_ON = true
Dumbell.host[*].consecutive = 50
Dumbell.Q_EQ_STABLE_PERCENT = 20
